LAMMPS (29 Sep 2021 - Update 2)
# Deformation of Au nanowire #

# Structure generation #
units 		metal
atom_style 	atomic
boundary 	m m p

# define lattice with lattice parameter, origin, orientation in z, x, and y axis
lattice 	fcc 4.07 origin 0 0 0 orient z 1 1 0 orient x 0 0 -1 orient y -1 1 0
Lattice spacing in x,y,z = 4.0700000 5.7558492 5.7558492
region 		box block 0 10 0 5 0 40 units lattice side in
create_box 	1 box
Created orthogonal box = (0.0000000 0.0000000 0.0000000) to (40.700000 28.779246 230.23397)
create_atoms 	1 box
Created 16070 atoms
region 		1 prism 5.1 10.0 0 5 -1 1000 10 0 0
region 		2 prism -1.0 4.9 0 5 -1 1000 -10 0 0
region 		3 prism 14.9 20.0 0 5 -1 1000 -10 0 0
region 		4 prism -20.0 -4.5 0 5 -1 1000 10 0 0
group 		del1 region 1
1600 atoms in group del1
group 		del2 region 2
2000 atoms in group del2
group 		del3 region 3
2035 atoms in group del3
group 		del4 region 4
2442 atoms in group del4
delete_atoms 	group del1 # trimming corner to make a rhombic wire
Deleted 1600 atoms, new total = 14470
delete_atoms 	group del2 # trimming corner to make a rhombic wire
Deleted 2000 atoms, new total = 12470
delete_atoms 	group del3 # trimming corner to make a rhombic wire
Deleted 2035 atoms, new total = 10435
delete_atoms 	group del4 # trimming corner to make a rhombic wire
Deleted 2435 atoms, new total = 8000

# Interatomic potential #
pair_style 	eam
pair_coeff 	* * Au_u3.eam
Reading eam potential file Au_u3.eam with DATE: 2007-06-11
neighbor 	1.5 bin
neigh_modify 	every 1 delay 1

# Thermal equilibration at 150 K #
velocity 	all create 150 87654321 dist gaussian
velocity 	all zero linear
velocity 	all zero angular
thermo 		200
thermo_style 	custom step temp pe lx ly lz pzz press
timestep 	0.005 # ps (pico-second)

dump 		1 all atom 2000 initial_equilibrium.dump
fix 		1 all npt temp 150.0 150.0 10.0 z 0.0 0.0 10.0 drag 1.0
run 		5000
  update every 1 steps, delay 1 steps, check yes
Step Temp PotEng Lx Ly Lz Pzz Press
0    149.99359   -30237.251         40.7    28.782124    230.23397   -19287.124   -15520.539
Averages over the last 13 of 26 rows, steps 2600 to 5000:
Temp PotEng Lx Ly Lz Pzz Press
131.003 -30213.1 40.7 28.7814 228.46 568.882 546.492
Loop time of 43.4165 on 1 procs for 5000 steps with 8000 atoms

unfix 		1
undump 		1

# Tensile loading #
reset_timestep 	0
compute 	MyTemp all temp
compute 	MyPe all pe

# Compute per-atom quantities
compute         allke all ke/atom
compute         allpe all pe/atom
compute         stress all stress/atom NULL

# Store initial cell length for strain calculations
variable 	tmp equal "lz"
variable 	L0 equal 228.613394073479
Initial Length, L0: 228.613394073479

# taking averages of T and potential energy between step 100 ~ 200
fix 		ThermoAve all ave/time 1 100 200 c_MyTemp c_MyPe
thermo 		200

# saving a log.lammps file with timestep, temperature, potential energy, box length (along z), volume and z-component of Pressure
thermo_style 	custom step f_ThermoAve[1] f_ThermoAve[2] lz vol pzz
thermo_modify 	lost warn norm yes flush yes
fix 		1 all nvt temp 150.0 150.0 10.0
fix 		2 all deform 200 z erate 0.0025 # equal to strain rate of 0.0025/ps

# Output strain and stress info to file
# for units metal, pressure is in [bars] = 100 [kPa] = 1/10000 [GPa]

variable	stress equal "-pzz/10000"
variable 	strain equal "(lz - v_L0)/v_L0"

fix 		3 all ave/time 20 10 200 v_strain v_stress file stress_strain.txt

dump            deform all custom 1000 deform.dump id type x y z c_allpe c_allke c_stress[1] c_stress[2] c_stress[3] c_stress[4] c_stress[5] c_stress[6]
run 		50000
Step f_ThermoAve[1] f_ThermoAve[2] Lz Volume Pzz
0            0            0    228.61339    267778.37   -522.75257
Averages over the last 126 of 251 rows, steps 25000 to 50000:
f_ThermoAve[1] f_ThermoAve[2] Lz Volume Pzz
166.13 -3.72161 335.776 397662 -6941.36
Loop time of 480.02 on 1 procs for 50000 steps with 8000 atoms

write_data	deformed_structure.data
System init for write_data ...
